/*--------------------------------*- C++ -*----------------------------------*\ 
  =========                 | 
  \      /  F ield         | OpenFOAM: The Open Source CFD Toolbox 
   \    /   O peration     | Website:  https://openfoam.org 
    \  /    A nd           | Version:  6 
     \/     M anipulation  | 
\*---------------------------------------------------------------------------*/ 
FoamFile 
{ 
    version     2.0; 
    format      ascii; 
    class       dictionary; 
    object      blockMeshDict; 
} 
// * * * * * * * * * * * * * * * * * * * * * * * * * * * * * * * * * * * * * // 

convertToMeters 1; 

vertices
(
    (0.0 0.0 0)
    (21.0 -12.5 0)
    (5.5496237545469675 -12.5 0)
    (0.0 -12.5 0)
    (-12.5 0.0 0)
    (0.0 12.5 0)
    (5.5496237545469675 12.5 0)
    (21.0 12.5 0)
    (21.0 -6.261129599695666 0)
    (21.0 -6.361129599695666 0)
    (21.0 -6.461129599695665 0)
    (1.0161385536012715 0.09868914371732529 0)
    (1.0 0.0 0)
    (0.9999898229188396 -0.0999999994821351 0)
    (0.24809254457472202 0.18703797772684966 0)
    (0.25 0.08705617131287961 0)
    (0.25 0.00017541832061068703 0)
    (0.251907455425278 -0.09980638809335936 0)
    (-0.1 0.0 0)
    (0.0 0.0 1)
    (21.0 -12.5 1)
    (5.5496237545469675 -12.5 1)
    (0.0 -12.5 1)
    (-12.5 0.0 1)
    (0.0 12.5 1)
    (5.5496237545469675 12.5 1)
    (21.0 12.5 1)
    (21.0 -6.261129599695666 1)
    (21.0 -6.361129599695666 1)
    (21.0 -6.461129599695665 1)
    (1.0161385536012715 0.09868914371732529 1)
    (1.0 0.0 1)
    (0.9999898229188396 -0.0999999994821351 1)
    (0.24809254457472202 0.18703797772684966 1)
    (0.25 0.08705617131287961 1)
    (0.25 0.00017541832061068703 1)
    (0.251907455425278 -0.09980638809335936 1)
    (-0.1 0.0 1)
);

blocks
(
    hex (2 1 10 13 21 20 29 32) (60 79 1) simpleGrading (0.0028123982441045957 5.523970144934388 5.523970144934388 0.0028123982441045957 0.013859604826410363 0.013859604826410363 0.013859604826410363 0.013859604826410363 1 1 1 1) 
    hex (3 2 13 17 22 21 32 36) (16 79 1) simpleGrading (42.266269014020125 15.258112509420979 15.258112509420979 42.266269014020125 0.013860101013025422 0.013859604826410363 0.013859604826410363 0.013860101013025422 1 1 1 1) 
    hex (4 3 17 18 23 22 36 37) (28 79 1) edgeGrading (0.01 0.5 0.5 0.01 0.013859604826410363 0.013860101013025422 0.013860101013025422 0.013859604826410363 1 1 1 1) 
    hex (4 18 14 5 23 37 33 24) (79 28 1) edgeGrading (0.013859604826410363 0.013987193962368395 0.013987193962368395 0.013859604826410363 0.01 0.5 0.5 0.01 1 1 1 1) 
    hex (14 11 6 5 33 30 25 24) (16 79 1) edgeGrading (15.186465525188716 42.266269014020125 42.266269014020125 15.186465525188716 71.49396817477707 72.15212933737014 72.15212933737014 71.49396817477707 1 1 1 1) 
    hex (11 8 7 6 30 27 26 25) (60 79 1) simpleGrading (5.523970144934388 0.0028123982441045957 0.0028123982441045957 5.523970144934388 72.15212933737014 72.15212933737014 72.15212933737014 72.15212933737014 1 1 1 1) 
    hex (12 9 8 11 31 28 27 30) (60 48 1) simpleGrading (5.523970144934388 97.01723378487254 1) 
    hex (15 12 11 14 34 31 30 33) (16 48 1) egeeGrading (10 15.186465525188716 15.186465525188716 10 97.01723378487254 97.01723378487254 97.01723378487254 97.01723378487254 1 1 1 1) 
    hex (0 15 14 18 19 34 33 37) (28 48 1) edgeGrading (2 0.5 0.5 2 97.01723378487254 97.01723378487254 97.01723378487254 97.01723378487254 1 1 1 1) 
    hex (18 17 16 0 37 36 35 19) (28 48 1) edgeGrading (0.5 2 2 0.5 0.010307447048195735 0.010307447048195735 0.010307447048195735 0.010307447048195735 1 1 1 1) 
    hex (17 13 12 16 36 32 31 35) (16 48 1) edgeGrading (15.258112509420979 10 10 15.258112509420979 0.010307447048195735 0.010307447048195735 0.010307447048195735 0.010307447048195735 1 1 1 1) 
    hex (13 10 9 12 32 29 28 31) (60 48 1) simpleGrading (5.523970144934388 0.010307447048195735 1) 
);

edges
(
    polyLine 11 14
    (
        (1.0108975536012714 0.10203514371732529 0)
        (1.0012323480678265 0.10361568669991146 0)
        (0.9897211573591517 0.10549871789169775 0)
        (0.9771696289660162 0.1075512949177123 0)
        (0.9641912874560055 0.10967335076066845 0)
        (0.9510378200696558 0.11182426366834142 0)
        (0.9377504574127233 0.11399699591354087 0)
        (0.9244537583329059 0.11617178315410889 0)
        (0.9112073959128423 0.11833816950385365 0)
        (0.8982227231489436 0.12046127951691638 0)
        (0.8857780066753177 0.12249639667239208 0)
        (0.8735966028472972 0.12448797212926842 0)
        (0.8614195389317625 0.12647998258199913 0)
        (0.8488472341132267 0.12853530046409442 0)
        (0.835695613121083 0.13063678816753754 0)
        (0.822073952728224 0.13269191779001463 0)
        (0.8088293415746561 0.13468931153148792 0)
        (0.7956159499941188 0.13668121979290757 0)
        (0.7823979117081761 0.1386747731656555 0)
        (0.7691958271302287 0.14066578592129048 0)
        (0.7560072484740068 0.14265487318942477 0)
        (0.7428567858053308 0.14463794296278737 0)
        (0.7297638295487022 0.14661248390640766 0)
        (0.716823580092671 0.14856467236055165 0)
        (0.7041679095204497 0.15047292430598186 0)
        (0.6921077760400112 0.15229194443543548 0)
        (0.6803860297318677 0.15405852159102762 0)
        (0.6672452963112485 0.1559332348451295 0)
        (0.6532934586448803 0.15768987303097187 0)
        (0.6404087410487797 0.1591418301680928 0)
        (0.6270373073481162 0.16054069757572675 0)
        (0.6139070258451568 0.16191383157434996 0)
        (0.6005737995922041 0.1633076461004523 0)
        (0.5871346369163588 0.16471355853357872 0)
        (0.5736938595388076 0.16611884896272466 0)
        (0.5602847113971267 0.16752086445163233 0)
        (0.5469029102599967 0.1689199482104123 0)
        (0.5335788676587172 0.1703128481137436 0)
        (0.5202781693719316 0.17170371200382167 0)
        (0.507051065661346 0.17308682741127526 0)
        (0.49394521979216033 0.17445702039349825 0)
        (0.48116793179266404 0.1757926173944605 0)
        (0.46829653889545186 0.17713330104941521 0)
        (0.45514507777366653 0.17838935411521062 0)
        (0.44214401584030505 0.179563518664282 0)
        (0.429012210033796 0.1806752975546679 0)
        (0.41583612758360583 0.18171157051740872 0)
        (0.402539088265607 0.18267958037517448 0)
        (0.38908733262197637 0.18356947226159398 0)
        (0.3754818865537068 0.18437836354736428 0)
        (0.36172197180799015 0.1851026628901649 0)
        (0.3479002412465857 0.18572688190375566 0)
        (0.3340740614608197 0.1862508063660574 0)
        (0.3202580799274273 0.18667009097508533 0)
        (0.306491676797892 0.18697970651571394 0)
        (0.2927637498755256 0.1871813632771459 0)
        (0.2790680006217356 0.18727070959307995 0)
        (0.26537268685891147 0.18724718004970786 0)
        (0.25166431141308565 0.18710517007707958 0)
    )
    polyLine 30 33
    (
        (1.0108975536012714 0.10203514371732529 1)
        (1.0012323480678265 0.10361568669991146 1)
        (0.9897211573591517 0.10549871789169775 1)
        (0.9771696289660162 0.1075512949177123 1)
        (0.9641912874560055 0.10967335076066845 1)
        (0.9510378200696558 0.11182426366834142 1)
        (0.9377504574127233 0.11399699591354087 1)
        (0.9244537583329059 0.11617178315410889 1)
        (0.9112073959128423 0.11833816950385365 1)
        (0.8982227231489436 0.12046127951691638 1)
        (0.8857780066753177 0.12249639667239208 1)
        (0.8735966028472972 0.12448797212926842 1)
        (0.8614195389317625 0.12647998258199913 1)
        (0.8488472341132267 0.12853530046409442 1)
        (0.835695613121083 0.13063678816753754 1)
        (0.822073952728224 0.13269191779001463 1)
        (0.8088293415746561 0.13468931153148792 1)
        (0.7956159499941188 0.13668121979290757 1)
        (0.7823979117081761 0.1386747731656555 1)
        (0.7691958271302287 0.14066578592129048 1)
        (0.7560072484740068 0.14265487318942477 1)
        (0.7428567858053308 0.14463794296278737 1)
        (0.7297638295487022 0.14661248390640766 1)
        (0.716823580092671 0.14856467236055165 1)
        (0.7041679095204497 0.15047292430598186 1)
        (0.6921077760400112 0.15229194443543548 1)
        (0.6803860297318677 0.15405852159102762 1)
        (0.6672452963112485 0.1559332348451295 1)
        (0.6532934586448803 0.15768987303097187 1)
        (0.6404087410487797 0.1591418301680928 1)
        (0.6270373073481162 0.16054069757572675 1)
        (0.6139070258451568 0.16191383157434996 1)
        (0.6005737995922041 0.1633076461004523 1)
        (0.5871346369163588 0.16471355853357872 1)
        (0.5736938595388076 0.16611884896272466 1)
        (0.5602847113971267 0.16752086445163233 1)
        (0.5469029102599967 0.1689199482104123 1)
        (0.5335788676587172 0.1703128481137436 1)
        (0.5202781693719316 0.17170371200382167 1)
        (0.507051065661346 0.17308682741127526 1)
        (0.49394521979216033 0.17445702039349825 1)
        (0.48116793179266404 0.1757926173944605 1)
        (0.46829653889545186 0.17713330104941521 1)
        (0.45514507777366653 0.17838935411521062 1)
        (0.44214401584030505 0.179563518664282 1)
        (0.429012210033796 0.1806752975546679 1)
        (0.41583612758360583 0.18171157051740872 1)
        (0.402539088265607 0.18267958037517448 1)
        (0.38908733262197637 0.18356947226159398 1)
        (0.3754818865537068 0.18437836354736428 1)
        (0.36172197180799015 0.1851026628901649 1)
        (0.3479002412465857 0.18572688190375566 1)
        (0.3340740614608197 0.1862508063660574 1)
        (0.3202580799274273 0.18667009097508533 1)
        (0.306491676797892 0.18697970651571394 1)
        (0.2927637498755256 0.1871813632771459 1)
        (0.2790680006217356 0.18727070959307995 1)
        (0.26537268685891147 0.18724718004970786 1)
        (0.25166431141308565 0.18710517007707958 1)
    )
    polyLine 14 18
    (
        (0.23792892785284292 0.18684302825660157 0)
        (0.22417434209118497 0.18645441432412757 0)
        (0.21040664286180707 0.18593279291168396 0)
        (0.19666137130606376 0.18527155387771344 0)
        (0.1830127308692685 0.18446899745313633 0)
        (0.1694281099035675 0.18352866240409668 0)
        (0.15584633574328396 0.1824251300296327 0)
        (0.1422872259470262 0.18114200431897795 0)
        (0.1287258298732542 0.17966004921019874 0)
        (0.11518522472625578 0.17796056006936659 0)
        (0.10165212584109531 0.17602151125209703 0)
        (0.08809889396072433 0.17380602562512015 0)
        (0.0745259180001625 0.17128066465553615 0)
        (0.0608610749994308 0.1683940164668001 0)
        (0.047155240058393014 0.1651120795959822 0)
        (0.03350488788595739 0.16140736437120345 0)
        (0.02000201017871321 0.15723733837087905 0)
        (0.006818573192619942 0.15259068105796003 0)
        (-0.005786369432271392 0.14750731357279429 0)
        (-0.017506330436130306 0.14209778428002476 0)
        (-0.02813060762491706 0.1365030492726802 0)
        (-0.03764796250596826 0.13080775571451186 0)
        (-0.04615004971030942 0.1250464335569103 0)
        (-0.05381247365424871 0.1191830155108562 0)
        (-0.06082687363592791 0.11311874629681154 0)
        (-0.06747352041132318 0.1065937788605878 0)
        (-0.07395164211348518 0.09926824747452667 0)
        (-0.08041431032653573 0.09064778246570898 0)
        (-0.08694519973177055 0.0798901968564972 0)
        (-0.09311778808948498 0.06624413356507908 0)
        (-0.09790906756909203 0.04943761351381841 0)
        (-0.09942060061546779 0.039194633106074725 0)
    )
    polyLine 33 37
    (
        (0.23792892785284292 0.18684302825660157 1)
        (0.22417434209118497 0.18645441432412757 1)
        (0.21040664286180707 0.18593279291168396 1)
        (0.19666137130606376 0.18527155387771344 1)
        (0.1830127308692685 0.18446899745313633 1)
        (0.1694281099035675 0.18352866240409668 1)
        (0.15584633574328396 0.1824251300296327 1)
        (0.1422872259470262 0.18114200431897795 1)
        (0.1287258298732542 0.17966004921019874 1)
        (0.11518522472625578 0.17796056006936659 1)
        (0.10165212584109531 0.17602151125209703 1)
        (0.08809889396072433 0.17380602562512015 1)
        (0.0745259180001625 0.17128066465553615 1)
        (0.0608610749994308 0.1683940164668001 1)
        (0.047155240058393014 0.1651120795959822 1)
        (0.03350488788595739 0.16140736437120345 1)
        (0.02000201017871321 0.15723733837087905 1)
        (0.006818573192619942 0.15259068105796003 1)
        (-0.005786369432271392 0.14750731357279429 1)
        (-0.017506330436130306 0.14209778428002476 1)
        (-0.02813060762491706 0.1365030492726802 1)
        (-0.03764796250596826 0.13080775571451186 1)
        (-0.04615004971030942 0.1250464335569103 1)
        (-0.05381247365424871 0.1191830155108562 1)
        (-0.06082687363592791 0.11311874629681154 1)
        (-0.06747352041132318 0.1065937788605878 1)
        (-0.07395164211348518 0.09926824747452667 1)
        (-0.08041431032653573 0.09064778246570898 1)
        (-0.08694519973177055 0.0798901968564972 1)
        (-0.09311778808948498 0.06624413356507908 1)
        (-0.09790906756909203 0.04943761351381841 1)
        (-0.09942060061546779 0.039194633106074725 1)
    )
    polyLine 18 17
    (
        (-0.0961826455321139 0.00012105536470817871 0)
        (-0.09224198872272515 -0.011677835096493974 0)
        (-0.08266430179732549 -0.030070745550717308 0)
        (-0.07151054120312966 -0.044488346207118605 0)
        (-0.059459268425405484 -0.0558587928744866 0)
        (-0.04789374375438667 -0.06415482292111024 0)
        (-0.03754138484131865 -0.07001145895359165 0)
        (-0.028190632661901166 -0.07431231477437451 0)
        (-0.019279011391193993 -0.07770972737030189 0)
        (-0.010333877619955651 -0.08055674529072698 0)
        (-0.0010427809309052245 -0.08303347159029494 0)
        (0.009038300234672648 -0.08529095454754552 0)
        (0.02021851887501803 -0.08738588935725168 0)
        (0.032472036756073124 -0.08930282511655264 0)
        (0.04548176920184675 -0.09099740504604156 0)
        (0.058863935870041594 -0.09245674783009854 0)
        (0.07237064095632498 -0.09369772358006645 0)
        (0.08590001068360326 -0.09475530768852192 0)
        (0.09942306909563443 -0.09565723092173449 0)
        (0.11291967928496621 -0.09642817631317202 0)
        (0.12639021622177443 -0.09708580555446697 0)
        (0.13983215652194006 -0.09764655751007242 0)
        (0.15325929842750796 -0.09812359637242847 0)
        (0.16666746374598687 -0.0985243030480886 0)
        (0.18005175956596686 -0.09885979345726152 0)
        (0.19342361591643562 -0.09913720619234842 0)
        (0.20677578798437543 -0.09936419956696416 0)
        (0.22010328821778738 -0.0995472904620647 0)
        (0.23343116910222098 -0.09969527761202587 0)
        (0.24675419110154795 -0.09980636597252414 0)
    )
    polyLine 37 36
    (
        (-0.0961826455321139 0.00012105536470817871 1)
        (-0.09224198872272515 -0.011677835096493974 1)
        (-0.08266430179732549 -0.030070745550717308 1)
        (-0.07151054120312966 -0.044488346207118605 1)
        (-0.059459268425405484 -0.0558587928744866 1)
        (-0.04789374375438667 -0.06415482292111024 1)
        (-0.03754138484131865 -0.07001145895359165 1)
        (-0.028190632661901166 -0.07431231477437451 1)
        (-0.019279011391193993 -0.07770972737030189 1)
        (-0.010333877619955651 -0.08055674529072698 1)
        (-0.0010427809309052245 -0.08303347159029494 1)
        (0.009038300234672648 -0.08529095454754552 1)
        (0.02021851887501803 -0.08738588935725168 1)
        (0.032472036756073124 -0.08930282511655264 1)
        (0.04548176920184675 -0.09099740504604156 1)
        (0.058863935870041594 -0.09245674783009854 1)
        (0.07237064095632498 -0.09369772358006645 1)
        (0.08590001068360326 -0.09475530768852192 1)
        (0.09942306909563443 -0.09565723092173449 1)
        (0.11291967928496621 -0.09642817631317202 1)
        (0.12639021622177443 -0.09708580555446697 1)
        (0.13983215652194006 -0.09764655751007242 1)
        (0.15325929842750796 -0.09812359637242847 1)
        (0.16666746374598687 -0.0985243030480886 1)
        (0.18005175956596686 -0.09885979345726152 1)
        (0.19342361591643562 -0.09913720619234842 1)
        (0.20677578798437543 -0.09936419956696416 1)
        (0.22010328821778738 -0.0995472904620647 1)
        (0.23343116910222098 -0.09969527761202587 1)
        (0.24675419110154795 -0.09980636597252414 1)
    )
    polyLine 17 13
    (
        (0.26005754507582535 -0.09988863519494758 0)
        (0.2733555070108623 -0.09994539971124067 0)
        (0.2866376694316661 -0.09998078919656635 0)
        (0.299913657155558 -0.09999996185613036 0)
        (0.31316462602373146 -0.10000399935316333 0)
        (0.32638078587112623 -0.10000299992833592 0)
        (0.33959 -0.10000300000000001 0)
        (0.3528067841519688 -0.10000299992840098 0)
        (0.366016 -0.10000200000000001 0)
        (0.37923221856683953 -0.10000299992850384 0)
        (0.392461 -0.10000300000000001 0)
        (0.40569078100423206 -0.10000299992852005 0)
        (0.4189127821482575 -0.10000199992847679 0)
        (0.43212321742255444 -0.10000199992846054 0)
        (0.445346 -0.10000300000000001 0)
        (0.4585747805754009 -0.10000199992853626 0)
        (0.47179321856683953 -0.10000199992850384 0)
        (0.48501221742255446 -0.10000299992846054 0)
        (0.49823778214825754 -0.10000299992847679 0)
        (0.5114597810042321 -0.10000199992852005 0)
        (0.524682 -0.10000200000000001 0)
        (0.5379032185668395 -0.10000199992850384 0)
        (0.551127 -0.10000300000000001 0)
        (0.56434 -0.10000200000000001 0)
        (0.577555 -0.10000300000000001 0)
        (0.5907825642964988 -0.10000199971390711 0)
        (0.603995 -0.100001 0)
        (0.6172092181378138 -0.1000019999284876 0)
        (0.630437 -0.10000200000000001 0)
        (0.643663 -0.10000200000000001 0)
        (0.6568907814331605 -0.10000199992850384 0)
        (0.670108 -0.100001 0)
        (0.6833222177086906 -0.10000199992847136 0)
        (0.696547 -0.10000200000000001 0)
        (0.7097757807183337 -0.10000199992853086 0)
        (0.722997 -0.100001 0)
        (0.736216 -0.10000200000000001 0)
        (0.7494377820052165 -0.10000099992848219 0)
        (0.762657 -0.100001 0)
        (0.775884 -0.100001 0)
        (0.7891032181378138 -0.1000009999284876 0)
        (0.802326 -0.10000200000000001 0)
        (0.815538 -0.100001 0)
        (0.828754 -0.10000200000000001 0)
        (0.8419805654410435 -0.10000099971382051 0)
        (0.85519 -0.1 0)
        (0.8684 -0.100001 0)
        (0.88161 -0.1 0)
        (0.8948212172794701 -0.10000099992845513 0)
        (0.908046 -0.100001 0)
        (0.921267 -0.100001 0)
        (0.934476 -0.100001 0)
        (0.94764 -0.100001 0)
        (0.9606638998518027 -0.10000099992395578 0)
        (0.9732861257529464 -0.09999999991489081 0)
        (0.9848933362559514 -0.09999999989124746 0)
        (0.9947138229188397 -0.10000099948213512 0)
    )
    polyLine 36 32
    (
        (0.26005754507582535 -0.09988863519494758 1)
        (0.2733555070108623 -0.09994539971124067 1)
        (0.2866376694316661 -0.09998078919656635 1)
        (0.299913657155558 -0.09999996185613036 1)
        (0.31316462602373146 -0.10000399935316333 1)
        (0.32638078587112623 -0.10000299992833592 1)
        (0.33959 -0.10000300000000001 1)
        (0.3528067841519688 -0.10000299992840098 1)
        (0.366016 -0.10000200000000001 1)
        (0.37923221856683953 -0.10000299992850384 1)
        (0.392461 -0.10000300000000001 1)
        (0.40569078100423206 -0.10000299992852005 1)
        (0.4189127821482575 -0.10000199992847679 1)
        (0.43212321742255444 -0.10000199992846054 1)
        (0.445346 -0.10000300000000001 1)
        (0.4585747805754009 -0.10000199992853626 1)
        (0.47179321856683953 -0.10000199992850384 1)
        (0.48501221742255446 -0.10000299992846054 1)
        (0.49823778214825754 -0.10000299992847679 1)
        (0.5114597810042321 -0.10000199992852005 1)
        (0.524682 -0.10000200000000001 1)
        (0.5379032185668395 -0.10000199992850384 1)
        (0.551127 -0.10000300000000001 1)
        (0.56434 -0.10000200000000001 1)
        (0.577555 -0.10000300000000001 1)
        (0.5907825642964988 -0.10000199971390711 1)
        (0.603995 -0.100001 1)
        (0.6172092181378138 -0.1000019999284876 1)
        (0.630437 -0.10000200000000001 1)
        (0.643663 -0.10000200000000001 1)
        (0.6568907814331605 -0.10000199992850384 1)
        (0.670108 -0.100001 1)
        (0.6833222177086906 -0.10000199992847136 1)
        (0.696547 -0.10000200000000001 1)
        (0.7097757807183337 -0.10000199992853086 1)
        (0.722997 -0.100001 1)
        (0.736216 -0.10000200000000001 1)
        (0.7494377820052165 -0.10000099992848219 1)
        (0.762657 -0.100001 1)
        (0.775884 -0.100001 1)
        (0.7891032181378138 -0.1000009999284876 1)
        (0.802326 -0.10000200000000001 1)
        (0.815538 -0.100001 1)
        (0.828754 -0.10000200000000001 1)
        (0.8419805654410435 -0.10000099971382051 1)
        (0.85519 -0.1 1)
        (0.8684 -0.100001 1)
        (0.88161 -0.1 1)
        (0.8948212172794701 -0.10000099992845513 1)
        (0.908046 -0.100001 1)
        (0.921267 -0.100001 1)
        (0.934476 -0.100001 1)
        (0.94764 -0.100001 1)
        (0.9606638998518027 -0.10000099992395578 1)
        (0.9732861257529464 -0.09999999991489081 1)
        (0.9848933362559514 -0.09999999989124746 1)
        (0.9947138229188397 -0.10000099948213512 1)
    )
    spline 12 15
    (
        (0.994759 0.003346 0)
        (0.985091 0.004927 0)
        (0.97358 0.00681 0)
        (0.961032 0.008862 0)
        (0.948054 0.010984 0)
        (0.9349 0.013135 0)
        (0.921611 0.015308 0)
        (0.908313 0.017483 0)
        (0.895069 0.019649 0)
        (0.882085 0.021772 0)
        (0.869641 0.023807 0)
        (0.857457 0.025799 0)
        (0.84528 0.027791 0)
        (0.832888 0.029817 0)
        (0.820358 0.03182 0)
        (0.807162 0.03381 0)
        (0.79392 0.035807 0)
        (0.780706 0.037799 0)
        (0.767485 0.039793 0)
        (0.754283 0.041784 0)
        (0.741095 0.043773 0)
        (0.727945 0.045756 0)
        (0.714849 0.047731 0)
        (0.70191 0.049683 0)
        (0.689256 0.051591 0)
        (0.677196 0.05341 0)
        (0.665868 0.055118 0)
        (0.65395 0.056821 0)
        (0.641439 0.058395 0)
        (0.629634 0.059724 0)
        (0.616637 0.061083 0)
        (0.603508 0.062456 0)
        (0.590173 0.06385 0)
        (0.576733 0.065256 0)
        (0.563295 0.066661 0)
        (0.549886 0.068063 0)
        (0.536505 0.069462 0)
        (0.52318 0.070855 0)
        (0.509878 0.072246 0)
        (0.496652 0.073629 0)
        (0.483548 0.074999 0)
        (0.470786 0.076333 0)
        (0.458362 0.077628 0)
        (0.445896 0.078818 0)
        (0.433429 0.079944 0)
        (0.420874 0.081007 0)
        (0.408286 0.081997 0)
        (0.395609 0.08292 0)
        (0.382821 0.083766 0)
        (0.369887 0.084535 0)
        (0.356838 0.085222 0)
        (0.343751 0.085813 0)
        (0.330663 0.086309 0)
        (0.317616 0.086705 0)
        (0.304632 0.086997 0)
        (0.291702 0.087187 0)
        (0.278827 0.087271 0)
        (0.265976 0.087249 0)
        (0.253136 0.087116 0)
    )
    spline 31 34
    (
        (0.994759 0.003346 1)
        (0.985091 0.004927 1)
        (0.97358 0.00681 1)
        (0.961032 0.008862 1)
        (0.948054 0.010984 1)
        (0.9349 0.013135 1)
        (0.921611 0.015308 1)
        (0.908313 0.017483 1)
        (0.895069 0.019649 1)
        (0.882085 0.021772 1)
        (0.869641 0.023807 1)
        (0.857457 0.025799 1)
        (0.84528 0.027791 1)
        (0.832888 0.029817 1)
        (0.820358 0.03182 1)
        (0.807162 0.03381 1)
        (0.79392 0.035807 1)
        (0.780706 0.037799 1)
        (0.767485 0.039793 1)
        (0.754283 0.041784 1)
        (0.741095 0.043773 1)
        (0.727945 0.045756 1)
        (0.714849 0.047731 1)
        (0.70191 0.049683 1)
        (0.689256 0.051591 1)
        (0.677196 0.05341 1)
        (0.665868 0.055118 1)
        (0.65395 0.056821 1)
        (0.641439 0.058395 1)
        (0.629634 0.059724 1)
        (0.616637 0.061083 1)
        (0.603508 0.062456 1)
        (0.590173 0.06385 1)
        (0.576733 0.065256 1)
        (0.563295 0.066661 1)
        (0.549886 0.068063 1)
        (0.536505 0.069462 1)
        (0.52318 0.070855 1)
        (0.509878 0.072246 1)
        (0.496652 0.073629 1)
        (0.483548 0.074999 1)
        (0.470786 0.076333 1)
        (0.458362 0.077628 1)
        (0.445896 0.078818 1)
        (0.433429 0.079944 1)
        (0.420874 0.081007 1)
        (0.408286 0.081997 1)
        (0.395609 0.08292 1)
        (0.382821 0.083766 1)
        (0.369887 0.084535 1)
        (0.356838 0.085222 1)
        (0.343751 0.085813 1)
        (0.330663 0.086309 1)
        (0.317616 0.086705 1)
        (0.304632 0.086997 1)
        (0.291702 0.087187 1)
        (0.278827 0.087271 1)
        (0.265976 0.087249 1)
        (0.253136 0.087116 1)
    )
    arc 4 5 (-8.838840628490328 8.83882890116947 0)
    arc 3 4 (-8.838840628490328 -8.83882890116947 0)
    arc 23 24 (-8.838840628490328 8.83882890116947 1)
    arc 22 23 (-8.838840628490328 -8.83882890116947 1)
    spline 15 0
    (
        (0.240294 0.086871 0)
        (0.227478 0.086509 0)
        (0.2147 0.086025 0)
        (0.201997 0.085414 0)
        (0.189397 0.084673 0)
        (0.176924 0.08381 0)
        (0.1646 0.082809 0)
        (0.152423 0.081657 0)
        (0.140376 0.080341 0)
        (0.128493 0.07885 0)
        (0.116797 0.077175 0)
        (0.105297 0.075296 0)
        (0.093994 0.073194 0)
        (0.082821 0.070835 0)
        (0.071861 0.068212 0)
        (0.061304 0.065349 0)
        (0.051308 0.062264 0)
        (0.042046 0.059001 0)
        (0.033755 0.055657 0)
        (0.026622 0.052361 0)
        (0.02072 0.049247 0)
        (0.015971 0.046398 0)
        (0.012197 0.043833 0)
        (0.009198 0.041532 0)
        (0.006803 0.039456 0)
        (0.0049 0.037586 0)
        (0.003379 0.035865 0)
        (0.002164 0.034249 0)
        (0.001229 0.032717 0)
        (0.000559 0.031249 0)
        (0.000149 0.029826 0)
        (2e-06 0.028464 0)
    )
    spline 34 19
    (
        (0.240294 0.086871 1)
        (0.227478 0.086509 1)
        (0.2147 0.086025 1)
        (0.201997 0.085414 1)
        (0.189397 0.084673 1)
        (0.176924 0.08381 1)
        (0.1646 0.082809 1)
        (0.152423 0.081657 1)
        (0.140376 0.080341 1)
        (0.128493 0.07885 1)
        (0.116797 0.077175 1)
        (0.105297 0.075296 1)
        (0.093994 0.073194 1)
        (0.082821 0.070835 1)
        (0.071861 0.068212 1)
        (0.061304 0.065349 1)
        (0.051308 0.062264 1)
        (0.042046 0.059001 1)
        (0.033755 0.055657 1)
        (0.026622 0.052361 1)
        (0.02072 0.049247 1)
        (0.015971 0.046398 1)
        (0.012197 0.043833 1)
        (0.009198 0.041532 1)
        (0.006803 0.039456 1)
        (0.0049 0.037586 1)
        (0.003379 0.035865 1)
        (0.002164 0.034249 1)
        (0.001229 0.032717 1)
        (0.000559 0.031249 1)
        (0.000149 0.029826 1)
        (2e-06 0.028464 1)
    )
    spline 0 16
    (
        (0.000102 0.027126 0)
        (0.000484 0.025764 0)
        (0.00121 0.024382 0)
        (0.00227 0.023013 0)
        (0.003661 0.021703 0)
        (0.005428 0.020443 0)
        (0.007602 0.019219 0)
        (0.010243 0.018007 0)
        (0.013475 0.016774 0)
        (0.017495 0.015493 0)
        (0.022573 0.014138 0)
        (0.029012 0.012694 0)
        (0.037035 0.01119 0)
        (0.04658 0.009697 0)
        (0.057315 0.0083 0)
        (0.068834 0.007045 0)
        (0.080828 0.005944 0)
        (0.093116 0.004984 0)
        (0.105597 0.004152 0)
        (0.118206 0.003432 0)
        (0.13091 0.002812 0)
        (0.14369 0.002279 0)
        (0.156527 0.001823 0)
        (0.169413 0.001438 0)
        (0.182341 0.001114 0)
        (0.19531 0.000845 0)
        (0.208312 0.000624 0)
        (0.221345 0.000445 0)
        (0.234403 0.0003 0)
        (0.24748 0.000191 0)
    )
    spline 19 35
    (
        (0.000102 0.027126 1)
        (0.000484 0.025764 1)
        (0.00121 0.024382 1)
        (0.00227 0.023013 1)
        (0.003661 0.021703 1)
        (0.005428 0.020443 1)
        (0.007602 0.019219 1)
        (0.010243 0.018007 1)
        (0.013475 0.016774 1)
        (0.017495 0.015493 1)
        (0.022573 0.014138 1)
        (0.029012 0.012694 1)
        (0.037035 0.01119 1)
        (0.04658 0.009697 1)
        (0.057315 0.0083 1)
        (0.068834 0.007045 1)
        (0.080828 0.005944 1)
        (0.093116 0.004984 1)
        (0.105597 0.004152 1)
        (0.118206 0.003432 1)
        (0.13091 0.002812 1)
        (0.14369 0.002279 1)
        (0.156527 0.001823 1)
        (0.169413 0.001438 1)
        (0.182341 0.001114 1)
        (0.19531 0.000845 1)
        (0.208312 0.000624 1)
        (0.221345 0.000445 1)
        (0.234403 0.0003 1)
        (0.24748 0.000191 1)
    )
    spline 16 12
    (
        (0.26058 0.00011 0)
        (0.273702 5.4e-05 0)
        (0.286843 1.9e-05 0)
        (0.300001 0.0 0)
        (0.313176 -4e-06 0)
        (0.326377 -3e-06 0)
        (0.33959 -3e-06 0)
        (0.352803 -3e-06 0)
        (0.366016 -2e-06 0)
        (0.379236 -3e-06 0)
        (0.392461 -3e-06 0)
        (0.405687 -3e-06 0)
        (0.418909 -2e-06 0)
        (0.432127 -2e-06 0)
        (0.445346 -3e-06 0)
        (0.458571 -2e-06 0)
        (0.471797 -2e-06 0)
        (0.485016 -3e-06 0)
        (0.498234 -3e-06 0)
        (0.511456 -2e-06 0)
        (0.524682 -2e-06 0)
        (0.537907 -2e-06 0)